Circuit: * C:\Users\furka\Desktop\LTspice Simulation\AC-DC CONVERTER.asc

d2: both pins shorted together -- ignoring.
.OP point found by inspection.

Date: Wed Jan 10 17:08:48 2024
Total elapsed time: 0.363 seconds.

tnom = 27
temp = 27
method = modified trap
totiter = 15430
traniter = 15430
tranpoints = 5513
accept = 3817
rejected = 1696
matrix size = 10
fillins = 0
solver = Normal
Avg thread counts: 1.2/1.5/1.5/1.2
Matrix Compiler1: 418 bytes object code size  0.3/0.3/[0.1]
Matrix Compiler2: 686 bytes object code size  0.2/0.4/[0.1]

