Circuit: * C:\Users\furka\Desktop\LTspice Simulation\Draft1.asc

Questionable use of curly braces in "b§e_abm1 n508352 0 v={min(v(n710213),(v(vzz_int)+({ilim2}*{rout})))}"
    Error: undefined symbol in: "min([v](n710213),(v(vzz_int)+((ilim2)*(rout))))"
Questionable use of curly braces in "b§e_abm10 n508434 0 v={if(v(v_fbk)<0.4&v(load)>0.99*{ilim},1,0)}"
    Error: undefined symbol in: "if([v](v_fbk)<0.4&v(load)>0.99*(ilim),1,0)"
Questionable use of curly braces in "b§e_u1_abm11 u1_drop 0 v={v(load)*v(u1_vdr)} "
    Error: undefined symbol in: "[v](load)*v(u1_vdr)"
Questionable use of curly braces in "b§g_u1_abmi1 u1_n08522 u1_n08530 i={if(v(en_ok)>0.5&v(u1_vin_ok)>0.5,0.08,0)} "
    Error: undefined symbol in: "if([v](en_ok)>0.5&v(u1_vin_ok)>0.5,0.08,0)"
Questionable use of curly braces in "b§e_abm2 n508184 0 v={max(v(vzz_int)+(v(i_foldback)*{rout}),(v(vzz_int)+({isc}*{rout})))}"
    Error: undefined symbol in: "max([v](vzz_int)+(v(i_foldback)*(rout)),(v(vzz_int)+((isc)*(rout))))"
Questionable use of curly braces in "b§e_abmgate1 yint1 0 v={if(v(a)>{{vthresh}},{{vdd}},{{vss}})}"
    Error: undefined symbol in: "if([v](a)>((vthresh)),((vdd)),((vss)))"
Questionable use of curly braces in "b§e_abmgate2 yint3 0 v={if(v(yint2)>{{vthresh}},{{vss}},{{vdd}})}"
    Error: undefined symbol in: "if([v](yint2)>((vthresh)),((vss)),((vdd)))"
Questionable use of curly braces in "b§e_abmgate yint 0 v={if(v(a)>{{vthresh}}&v(b)>{{vthresh}},{{vdd}},{{vss}})}"
    Error: undefined symbol in: "if([v](a)>((vthresh))&v(b)>((vthresh)),((vdd)),((vss)))"
Questionable use of curly braces in "b§e_abmgate yint 0 v={if(v(a)>{{vthresh}},{{vdd}},{{vss}})}"
    Error: undefined symbol in: "if([v](a)>((vthresh)),((vdd)),((vss)))"
Questionable use of curly braces in "b§e_abmgate yint 0 v={if(v(a)>{{vthresh}},{{vdd}},{{vss}})}"
    Error: undefined symbol in: "if([v](a)>((vthresh)),((vdd)),((vss)))"
Limiting rise time of source v2 to 0.001
Limiting fall time of source v2 to 0.001
Instance "m:u3:_driver:_out_stage:_up": Length shorter than recommended for a level 1 MOSFET.
Instance "m:u3:_driver:_out_stage:_dw": Length shorter than recommended for a level 1 MOSFET.
Direct Newton iteration for .op point succeeded.
Ignoring empty pin current: Ix(u4:fb)
Ignoring empty pin current: Ix(u4:fb)
Heightened Def Con from 0.0208275 to 0.0208275
Heightened Def Con from 0.0408275 to 0.0408275
